LAMMPS (23 Jun 2022)
# SHIK Silica Sample Code

units           metal
atom_style      full

# 2 is Oxygen
# 1 is Silicon
processors      * * 1
read_data       out.crn102.data
Reading data file ...
  orthogonal box = (0 0 -100) to (204.67363 176.11901 100)
  reading atoms ...
  15480 atoms
Finding 1-2 1-3 1-4 neighbors ...
     0 = max # of 1-2 neighbors
     0 = max # of 1-3 neighbors
     0 = max # of 1-4 neighbors
     1 = max # of special neighbors
mass            2 15.999
mass            1 28.085

group           gsi type 1 1
5160 atoms in group gsi
group           go type 2 2
10320 atoms in group go

compute         coord all  coord/atom cutoff  2.201
variable        uncoordination atom abs(c_coord<2)*(type==2) #+abs(c_coord-4)*(type==2)
variable        maxforce equal fmax
compute         uncoord all reduce sum v_uncoordination
variable        uncoord equal c_uncoord

# variable       t equal 330
# velocity       all create $t 87287
thermo          100
thermo_style    custom step temp pe fmax press lx ly xy pxx pyy pxy v_uncoord

#Pair Potentials
pair_style tersoff
pair_coeff * * SiO.tersoff Si O
Reading tersoff potential file SiO.tersoff with DATE: 2010-08-16

dump 1 all custom 1000 dump.lammpstrj id type element x y z v_uncoordination
dump_modify   1 sort id element Si O

#fix holdem1 all restrain bond 7392 7391 20.0 20.0 3.1
#fix holdem2 all restrain bond 59232 59231 20.0 20.0 3.1

fix             lan all langevin 0.0 0.0 0.001 4447
fix             nve all nve

variable        Fconv equal 1e-3
fix             HALT all halt 1 v_maxforce < 0.001  error continue
run            10000
  update every 1 steps, delay 10 steps, check yes
Step          Temp          PotEng          Fmax          Press            Lx             Ly             Xy            Pxx            Pyy            Pxy         v_uncoord
0   0             -73853.925      821.77776      11641.213      204.67363      176.11901      0              13982.831      14323.367      582.02255      24
Averages over the last 8 of 16 rows, steps 800 to 1500:
Temp PotEng Fmax Press Lx Ly Xy Pxx Pyy Pxy v_uncoord
0.0514228 -100329 0.1156 -2931.62 204.674 176.119 0 -4554.28 -4369.25 77.0388 0
Fix halt condition for fix-id HALT met on step 1574 with value 0.0009964136480103969 (src/fix_halt.cpp:237)
Loop time of 5.48173 on 4 procs for 1574 steps with 15480 atoms

unfix          HALT
unfix          lan
unfix          nve
#unfix          holdem1
#unfix          holdem2
velocity        all set 0.0 0.0 0.0
run             0
Step          Temp          PotEng          Fmax          Press            Lx             Ly             Xy            Pxx            Pyy            Pxy         v_uncoord
1574   0             -100400.56      0.71167323    -3005.5376      204.67363      176.11901      0             -4604.6708     -4419.7085      72.790279      0
Loop time of 1.89575e-06 on 4 procs for 0 steps with 15480 atoms

write_dump all custom out.tersoff.$i.lammpstrj id type element x y z v_uncoordination modify sort id element Si O
write_dump all custom out.tersoff.crn102.lammpstrj id type element x y z v_uncoordination modify sort id element Si O
if "$(v_uncoord) != 0" then  "shell           touch $i_failed" "jump SELF quit"
#write_data out.tersoff.$i.data
variable a loop 1 5
label           opt

##### OPT STEP 1

fix 1 all box/relax x 0 y 0
minimize 0.0 1.0e-2 1000 100000
Step          Temp          PotEng          Fmax          Press            Lx             Ly             Xy            Pxx            Pyy            Pxy         v_uncoord
1574   0             -100400.56      0.71167323    -3005.5376      204.67363      176.11901      0             -4604.6708     -4419.7085      72.790279      0
Averages over the last 6 of 12 rows, steps 2100 to 2574:
Temp PotEng Fmax Press Lx Ly Xy Pxx Pyy Pxy v_uncoord
0 -101203 6.32479 265.787 196.836 169.961 0 -0.275766 -0.326008 62.2303 0
Loop time of 3.75198 on 4 procs for 1000 steps with 15480 atoms

Minimization stats:
  Stopping criterion = max iterations
  Energy initial, next-to-last, final =
  Force two-norm initial, final = 28719.796 98.6522
  Force max component initial, final = 20719.837 21.779871
  Final line search alpha, max atom move = 2.4827457e-06 5.407388e-05
  Iterations, force evaluations = 1000 1000

unfix 1

fix             lan all langevin 0.0 0.0 0.001 4447
fix             nve all nve
fix             HALT all halt 1 v_maxforce < 0.001  error continue
run            10000
Step          Temp          PotEng          Fmax          Press            Lx             Ly             Xy            Pxx            Pyy            Pxy         v_uncoord
2574   0             -101220.86      2.0507065      292.71642      196.7063       169.85631      0              4.7804952      5.036295       60.554214      0
Fix halt condition for fix-id HALT met on step 3042 with value 0.0009988505776785117 (src/fix_halt.cpp:237)
Loop time of 1.63768 on 4 procs for 468 steps with 15480 atoms

unfix          HALT
unfix          lan
unfix          nve

run            0
Step          Temp          PotEng          Fmax          Press            Lx             Ly             Xy            Pxx            Pyy            Pxy         v_uncoord
3042   0.043385934   -101453.74      0.83855381    -746.62672      196.7063       169.85631      0             -1238.824      -1108.4042      50.160116      0
Loop time of 1.2085e-06 on 4 procs for 0 steps with 15480 atoms

velocity        all set 0.0 0.0 0.0
next a
jump SELF opt

##### OPT STEP 2

fix 1 all box/relax x 0 y 0
minimize 0.0 1.0e-2 1000 100000
Step          Temp          PotEng          Fmax          Press            Lx             Ly             Xy            Pxx            Pyy            Pxy         v_uncoord
3042   0             -101453.74      0.83855381    -746.6406       196.7063       169.85631      0             -1238.8441     -1108.4227      50.160221      0
Averages over the last 6 of 12 rows, steps 3600 to 4042:
Temp PotEng Fmax Press Lx Ly Xy Pxx Pyy Pxy v_uncoord
0 -101519 0.858501 113.197 194.49 168.475 0 -2.55215 -3.80787 42.7486 0
Loop time of 3.95126 on 4 procs for 1000 steps with 15480 atoms

Minimization stats:
  Stopping criterion = max iterations
  Energy initial, next-to-last, final =
  Force two-norm initial, final = 6933.2683 42.171858
  Force max component initial, final = 5166.9737 35.11091
  Final line search alpha, max atom move = 6.5073186e-06 0.00022847788
  Iterations, force evaluations = 1000 1057

unfix 1

fix             lan all langevin 0.0 0.0 0.001 4447
fix             nve all nve
fix             HALT all halt 1 v_maxforce < 0.001  error continue
run            10000
Step          Temp          PotEng          Fmax          Press            Lx             Ly             Xy            Pxx            Pyy            Pxy         v_uncoord
4042   0             -101524.74      0.85883986     107.9327       194.38896      168.45918      0             -0.45775054    -8.5186185      42.098128      0
Fix halt condition for fix-id HALT met on step 4162 with value 0.000996057069711287 (src/fix_halt.cpp:237)
Loop time of 0.421021 on 4 procs for 120 steps with 15480 atoms

unfix          HALT
unfix          lan
unfix          nve

run            0
Step          Temp          PotEng          Fmax          Press            Lx             Ly             Xy            Pxx            Pyy            Pxy         v_uncoord
4162   0.050936785   -101552.73      0.7862774     -37.046488      194.38896      168.45918      0             -160.51831     -123.68777      41.623569      0
Loop time of 1e-06 on 4 procs for 0 steps with 15480 atoms

velocity        all set 0.0 0.0 0.0
next a
jump SELF opt

##### OPT STEP 3

fix 1 all box/relax x 0 y 0
minimize 0.0 1.0e-2 1000 100000
Step          Temp          PotEng          Fmax          Press            Lx             Ly             Xy            Pxx            Pyy            Pxy         v_uncoord
4162   0             -101552.73      0.7862774     -37.063109      194.38896      168.45918      0             -160.54208     -123.7095       41.623628      0
Averages over the last 6 of 12 rows, steps 4700 to 5162:
Temp PotEng Fmax Press Lx Ly Xy Pxx Pyy Pxy v_uncoord
0 -101591 0.72942 24.5501 193.804 168.221 0 -0.800721 -4.5731 38.702 0
Loop time of 4.44884 on 4 procs for 1000 steps with 15480 atoms

Minimization stats:
  Stopping criterion = max iterations
  Energy initial, next-to-last, final =
  Force two-norm initial, final = 828.74438 81.015511
  Force max component initial, final = 656.25829 78.94919
  Final line search alpha, max atom move = 0.00026557733 0.020967115
  Iterations, force evaluations = 1000 1194

unfix 1

fix             lan all langevin 0.0 0.0 0.001 4447
fix             nve all nve
fix             HALT all halt 1 v_maxforce < 0.001  error continue
run            10000
Step          Temp          PotEng          Fmax          Press            Lx             Ly             Xy            Pxx            Pyy            Pxy         v_uncoord
5162   0             -101609.34      0.78493574     6.1890533      193.66635      168.17913      0              1.4884084     -19.385597      37.734771      0
Fix halt condition for fix-id HALT met on step 5224 with value 0.0009994666018275922 (src/fix_halt.cpp:237)
Loop time of 0.218053 on 4 procs for 62 steps with 15480 atoms

unfix          HALT
unfix          lan
unfix          nve

run            0
Step          Temp          PotEng          Fmax          Press            Lx             Ly             Xy            Pxx            Pyy            Pxy         v_uncoord
5224   0.036296708   -101618.62      0.83761265    -20.910946      193.66635      168.17913      0             -35.823203     -42.804067      37.745755      0
Loop time of 1.29125e-06 on 4 procs for 0 steps with 15480 atoms

velocity        all set 0.0 0.0 0.0
next a
jump SELF opt

##### OPT STEP 4

fix 1 all box/relax x 0 y 0
minimize 0.0 1.0e-2 1000 100000
Step          Temp          PotEng          Fmax          Press            Lx             Ly             Xy            Pxx            Pyy            Pxy         v_uncoord
5224   0             -101618.62      0.83761265    -20.922854      193.66635      168.17913      0             -35.840536     -42.820064      37.745749      0
Averages over the last 6 of 12 rows, steps 5800 to 6224:
Temp PotEng Fmax Press Lx Ly Xy Pxx Pyy Pxy v_uncoord
0 -101674 0.948022 -12.0466 193.327 167.928 0 -4.7078 -3.3439 35.5374 0
Loop time of 4.73576 on 4 procs for 1000 steps with 15480 atoms

Minimization stats:
  Stopping criterion = max iterations
  Energy initial, next-to-last, final =
  Force two-norm initial, final = 227.65243 31.042569
  Force max component initial, final = 174.09778 27.105944
  Final line search alpha, max atom move = 4.51092e-06 0.00012227275
  Iterations, force evaluations = 1000 1268

unfix 1

fix             lan all langevin 0.0 0.0 0.001 4447
fix             nve all nve
fix             HALT all halt 1 v_maxforce < 0.001  error continue
run            10000
Step          Temp          PotEng          Fmax          Press            Lx             Ly             Xy            Pxx            Pyy            Pxy         v_uncoord
6224   0             -101684.82      0.83233261    -13.948663      193.26394      167.89379      0             -1.4178644     -6.6807         35.152332      0
Fix halt condition for fix-id HALT met on step 6380 with value 0.0009986665099274705 (src/fix_halt.cpp:237)
Loop time of 0.553847 on 4 procs for 156 steps with 15480 atoms

unfix          HALT
unfix          lan
unfix          nve

run            0
Step          Temp          PotEng          Fmax          Press            Lx             Ly             Xy            Pxx            Pyy            Pxy         v_uncoord
6380   0.024192637   -101700.61      0.89867184    -46.421496      193.26394      167.89379      0             -45.051767     -45.574447      34.915371      0
Loop time of 1.5205e-06 on 4 procs for 0 steps with 15480 atoms

velocity        all set 0.0 0.0 0.0
next a
jump SELF opt

##### OPT STEP 5

fix 1 all box/relax x 0 y 0
minimize 0.0 1.0e-2 1000 100000
Step          Temp          PotEng          Fmax          Press            Lx             Ly             Xy            Pxx            Pyy            Pxy         v_uncoord
6380   0             -101700.61      0.89867184    -46.429463      193.26394      167.89379      0             -45.063201     -45.584994      34.915265      0
Averages over the last 6 of 12 rows, steps 6900 to 7380:
Temp PotEng Fmax Press Lx Ly Xy Pxx Pyy Pxy v_uncoord
0 -101748 1.40804 -17.5972 192.975 167.675 0 -1.8897 -2.83527 33.1892 0
Loop time of 4.8689 on 4 procs for 1000 steps with 15480 atoms

Minimization stats:
  Stopping criterion = max iterations
  Energy initial, next-to-last, final =
  Force two-norm initial, final = 259.98599 64.369203
  Force max component initial, final = 184.64051 55.189511
  Final line search alpha, max atom move = 0.00060789161 0.03354924
  Iterations, force evaluations = 1000 1279

unfix 1

fix             lan all langevin 0.0 0.0 0.001 4447
fix             nve all nve
fix             HALT all halt 1 v_maxforce < 0.001  error continue
run            10000
Step          Temp          PotEng          Fmax          Press            Lx             Ly             Xy            Pxx            Pyy            Pxy         v_uncoord
7380   0             -101758.98      0.74223596    -18.398062      192.90643      167.65808      0              7.6674984     -13.650721      32.787538      0
Fix halt condition for fix-id HALT met on step 7583 with value 0.0009987180687054953 (src/fix_halt.cpp:237)
Loop time of 0.722734 on 4 procs for 203 steps with 15480 atoms

unfix          HALT
unfix          lan
unfix          nve

run            0
Step          Temp          PotEng          Fmax          Press            Lx             Ly             Xy            Pxx            Pyy            Pxy         v_uncoord
7583   0.016514441   -101773.07      0.81889291    -44.725731      192.90643      167.65808      0             -34.305398     -40.811216      32.491106      0
Loop time of 1.30225e-06 on 4 procs for 0 steps with 15480 atoms

velocity        all set 0.0 0.0 0.0
next a
jump SELF opt
if "$(v_uncoord) != 0" then 'shell           touch $i_failed' else "write_data out.tersoff.$i.data"
write_data out.tersoff.$i.data
write_data out.tersoff.crn102.data
System init for write_data ...

label           quit
