LAMMPS (2 Aug 2023 - Update 1)
Loaded 1 plugins from /data/home/spj/deepmd-kit-new/lib/deepmd_lmp
# SHIK Silica Sample Code

units           metal
atom_style      full

# 2 is Oxygen
# 1 is Silicon
processors      * * 1
read_data       out.tersoff.$i.data
read_data       out.tersoff.0.15.data
Reading data file ...
  orthogonal box = (33.398362 15.09236 -100) to (1201.2075 539.30764 100)
  reading atoms ...
  290304 atoms
  reading velocities ...
  290304 velocities
Finding 1-2 1-3 1-4 neighbors ...
     0 = max # of 1-2 neighbors
     0 = max # of 1-3 neighbors
     0 = max # of 1-4 neighbors
     1 = max # of special neighbors
mass            2 15.999
mass            1 28.085

group           gsi type 1 1
96768 atoms in group gsi
group           go type 2 2
193536 atoms in group go

compute         coord all  coord/atom cutoff  2.201
variable        uncoordination atom abs(c_coord<2)*(type==2) #+abs(c_coord-4)*(type==2)
variable        maxforce equal fmax
compute         uncoord all reduce sum v_uncoordination
variable        uncoord equal c_uncoord

# variable       t equal 330
# velocity       all create $t 87287
thermo          100
thermo_style    custom step temp pe fmax press lx ly xy pxx pyy pxy v_uncoord

#Pair Potentials
pair_style      deepmd frozen_9.pb  #Si O
Summary of lammps deepmd module ...
  >>> Info of deepmd-kit:
  installed to:       /data/home/spj/deepmd-kit-new
  source:             v2.2.7-dirty
  source branch:       HEAD
  source commit:      839f4fe7
  source commit at:   2023-10-27 21:10:24 +0800
  surpport model ver.:1.1
  build variant:      cuda
  build with tf inc:  /data/home/spj/deepmd-kit-new/include;/data/home/spj/deepmd-kit-new/include
  build with tf lib:  /data/home/spj/deepmd-kit-new/lib/libtensorflow_cc.so
  set tf intra_op_parallelism_threads: 0
  set tf inter_op_parallelism_threads: 0
  >>> Info of lammps module:
  use deepmd-kit at:  /data/home/spj/deepmd-kit-newpair_coeff      * * Si O

dump 1 all custom 1000 dump.lammpstrj id type element x y z c_coord
dump_modify   1 sort id element Si O

# fix             lan all langevin 0.0 0.0 0.001 4447
# fix             nve all nve
fix               lan all npt temp 1 1 0.1 x 0 0 10 y 0 0 10

variable        Fconv equal 1e-3
fix             HALT all halt 1 v_maxforce < 0.001  error continue
run            2000

CITE-CITE-CITE-CITE-CITE-CITE-CITE-CITE-CITE-CITE-CITE-CITE-CITE

Your simulation uses code contributions which should be cited:

- USER-DEEPMD package:

@article{Wang_ComputPhysCommun_2018_v228_p178,
  author = {Wang, Han and Zhang, Linfeng and Han, Jiequn and E, Weinan},
  doi = {10.1016/j.cpc.2018.03.016},
  url = {https://doi.org/10.1016/j.cpc.2018.03.016},
  year = 2018,
  month = {jul},
  publisher = {Elsevier {BV}},
  volume = 228,
  journal = {Comput. Phys. Commun.},
  title = {{DeePMD-kit: A deep learning package for many-body potential energy representation and molecular dynamics}},
  pages = {178--184}
}
@misc{Zeng_JChemPhys_2023_v159_p054801,
  title  = {{DeePMD-kit v2: A software package for deep potential models}},
  author =   {Jinzhe Zeng and Duo Zhang and Denghui Lu and Pinghui Mo and Zeyu Li
         and Yixiao Chen and Mari{\'a}n Rynik and Li'ang Huang and Ziyao Li and
         Shaochen Shi and Yingze Wang and Haotian Ye and Ping Tuo and Jiabin
         Yang and Ye Ding and Yifan Li and Davide Tisi and Qiyu Zeng and Han
         Bao and Yu Xia and Jiameng Huang and Koki Muraoka and Yibo Wang and
         Junhan Chang and Fengbo Yuan and Sigbj{\o}rn L{\o}land Bore and Chun
         Cai and Yinnian Lin and Bo Wang and Jiayan Xu and Jia-Xin Zhu and
         Chenxing Luo and Yuzhi Zhang and Rhys E A Goodall and Wenshuo Liang
         and Anurag Kumar Singh and Sikai Yao and Jingchao Zhang and Renata
         Wentzcovitch and Jiequn Han and Jie Liu and Weile Jia and Darrin M
         York and Weinan E and Roberto Car and Linfeng Zhang and Han Wang},
  journal =  {J. Chem. Phys.},
  volume =   159,
  issue =    5,
  year =    2023,
  pages  =   054801,
  doi =      {10.1063/5.0155600},
}

CITE-CITE-CITE-CITE-CITE-CITE-CITE-CITE-CITE-CITE-CITE-CITE-CITE

Generated 0 of 1 mixed pair_coeff terms from geometric mixing rule
Step          Temp          PotEng          Fmax          Press            Lx             Ly             Xy            Pxx            Pyy            Pxy         v_uncoord
0   0             -99261275       2.2314339      1023.3536      1167.8091      524.21528      0              640.566        640.01994     -19.248352      0
Averages over the last 11 of 21 rows, steps 1000 to 2000:
Temp PotEng Fmax Press Lx Ly Xy Pxx Pyy Pxy v_uncoord
1.00983 -9.92721e+07 0.29773 -0.361051 1148.32 515.468 0 -1.07144 -1.02706 -23.4676 0
Loop time of 274.097 on 4 procs for 2000 steps with 290304 atoms

unfix          HALT
unfix          lan
# unfix          nve
velocity        all set 0.0 0.0 0.0

#variable a loop 1 10000
#label           opt

fix 1 all box/relax x 0 y 0
min_modify dmax 0.1
minimize 0.0 1.0e-2 10000 100000
Generated 0 of 1 mixed pair_coeff terms from geometric mixing rule
 (src/min.cpp:225)
Step          Temp          PotEng          Fmax          Press            Lx             Ly             Xy            Pxx            Pyy            Pxy         v_uncoord
2000   0             -99272140       0.33689696    -5.6301201      1148.3355      515.47965      0             -15.643046     -15.069701     -23.373641      0
Loop time of 15.7926 on 4 procs for 30 steps with 290304 atoms

Minimization stats:
  Stopping criterion = linesearch alpha is zero
  Energy initial, next-to-last, final =
  Force two-norm initial, final = 1605.1062 61.603025
  Force max component initial, final = 1155.9027 49.512548
  Final line search alpha, max atom move = 1.9261431e-12 9.5368251e-11
  Iterations, force evaluations = 30 118

unfix 1

fix             lan all langevin 0 0 0.01 4447
fix             nve all nve
fix             HALT all halt 1 v_maxforce < 0.001  error continue
run            5000
Generated 0 of 1 mixed pair_coeff terms from geometric mixing rule
Step          Temp          PotEng          Fmax          Press            Lx             Ly             Xy            Pxx            Pyy            Pxy         v_uncoord
2030   0             -99272145       0.067261703   -1.1078417      1148.3126      515.46321      0             -0.49119439     0.67007632    -23.360197      0
Averages over the last 26 of 52 rows, steps 4600 to 7030:
Temp PotEng Fmax Press Lx Ly Xy Pxx Pyy Pxy v_uncoord
0.000213248 -9.92722e+07 0.00900694 3.37365 1148.31 515.463 0 4.8758 5.24832 -23.3374 0
Loop time of 667.131 on 4 procs for 5000 steps with 290304 atoms

unfix          HALT
unfix          lan
unfix          nve

run            0
Generated 0 of 1 mixed pair_coeff terms from geometric mixing rule
Step          Temp          PotEng          Fmax          Press            Lx             Ly             Xy            Pxx            Pyy            Pxy         v_uncoord
7030   0.00014511381 -99272168       0.0084703015   3.0422351      1148.3126      515.46321      0              4.3880298      4.7416478     -23.351938      0
Loop time of 3.766e-06 on 4 procs for 0 steps with 290304 atoms

velocity        all set 0.0 0.0 0.0

if "$(v_uncoord) != 0" then 'shell           touch $i_failed' else "write_dump all atom out.dp.0.3.$i.lammpstrj"
write_dump all atom out.dp.0.3.$i.lammpstrj
write_dump all atom out.dp.0.3.0.15.lammpstrj
#write_data out.dp.0.3.$i.data
